tests/gallardo/raw_data.raw
0,   100.00, 32, 0, 1, 50.00     / PSS®E University-32.0    FRI, FEB 07 2014  13:19
RED DE MALLORCA
TESIS DE IGNACIO CALLE
     1,'            ',  20.0000,3,   1,   1,   1,1.00000,   0.0000
     2,'            ',  20.0000,2,   1,   1,   1,1.00000,   8.3449
     3,'            ',  20.0000,2,   1,   1,   1,1.00000,   5.2158
     4,'            ',  20.0000,2,   1,   1,   1,1.00000,  -2.8519
     5,'            ',  20.0000,2,   1,   1,   1,1.00000,  -7.4808
     6,'            ', 220.0000,1,   1,   1,   1,0.98773,  -2.1580
     7,'            ', 220.0000,1,   1,   1,   1,0.99002,  -1.1475
     8,'            ', 220.0000,1,   1,   1,   1,0.98757,   0.0157
     9,'            ', 220.0000,1,   1,   1,   1,0.99867,   5.5868
    10,'            ', 220.0000,1,   1,   1,   1,0.98922,   0.0721
    11,'            ', 220.0000,1,   1,   1,   1,0.99217,   1.2482
    12,'            ', 220.0000,1,   1,   1,   1,0.98623,  -0.7448
    13,'            ', 132.0000,1,   1,   1,   1,0.99880,  -3.9555
    14,'            ', 132.0000,1,   1,   1,   1,0.97927,  -8.9700
    15,'            ', 132.0000,1,   1,   1,   1,0.99356,  -1.0689
    16,'            ', 132.0000,1,   1,   1,   1,0.99438,  -4.3185
    17,'            ',  66.0000,1,   1,   1,   1,0.97899,  -4.0659
    18,'            ',  66.0000,1,   1,   1,   1,0.98168,  -3.5194
    19,'            ',  66.0000,1,   1,   1,   1,0.98258,  -3.0017
    20,'            ',  66.0000,1,   1,   1,   1,0.97407,  -4.1896
0 / END OF BUS DATA, BEGIN LOAD DATA
    11,'1 ',1,   1,   1,   250.000,    41.667,     0.000,     0.000,     0.000,     0.000,   1,1
    14,'1 ',1,   1,   1,   210.000,    35.000,     0.000,     0.000,     0.000,     0.000,   1,1
    16,'1 ',1,   1,   1,   120.000,    20.000,     0.000,     0.000,     0.000,     0.000,   1,1
    17,'1 ',1,   1,   1,   150.000,    25.000,     0.000,     0.000,     0.000,     0.000,   1,1
    18,'1 ',1,   1,   1,   150.000,    25.000,     0.000,     0.000,     0.000,     0.000,   1,1
    19,'1 ',1,   1,   1,   150.000,    25.000,     0.000,     0.000,     0.000,     0.000,   1,1
    20,'1 ',1,   1,   1,   175.000,    28.667,     0.000,     0.000,     0.000,     0.000,   1,1
0 / END OF LOAD DATA, BEGIN FIXED SHUNT DATA
0 / END OF FIXED SHUNT DATA, BEGIN GENERATOR DATA
     1,'1 ',   169.897,    87.228,   320.000,  -320.000,1.00000,     0,   600.000, 0.00000E+0, 3.00000E-1, 0.00000E+0, 0.00000E+0,1.00000,1,  100.0,   600.000,     0.000,   1,1.0000
     2,'1 ',   350.000,    18.143,   250.000,  -250.000,1.00000,     0,   470.000, 0.00000E+0, 3.00000E-1, 0.00000E+0, 0.00000E+0,1.00000,1,  100.0,   470.000,     0.000,   1,1.0000
     3,'1 ',   500.000,    74.359,   270.000,  -270.000,1.00000,     0,   510.000, 0.00000E+0, 3.00000E-1, 0.00000E+0, 0.00000E+0,1.00000,1,  100.0,   510.000,     0.000,   1,1.0000
     4,'1 ',   100.000,    23.353,   150.000,  -150.000,1.00000,     0,   275.000, 0.00000E+0, 2.50000E-1, 0.00000E+0, 0.00000E+0,1.00000,1,  100.0,   275.000,     0.000,   1,1.0000
     5,'1 ',   100.000,    82.771,   185.000,  -185.000,1.00000,     0,   350.000, 0.00000E+0, 2.50000E-1, 0.00000E+0, 0.00000E+0,1.00000,1,  100.0,   350.000,     0.000,   1,1.0000
0 / END OF GENERATOR DATA, BEGIN BRANCH DATA
     6,     7,'1 ', 2.23000E-3, 1.45000E-2,   0.02526,    0.00,    0.00,    0.00,  0.00000,  0.00000,  0.00000,  0.00000,1,1,   0.00,   1,1.0000
     6,     7,'2 ', 2.23000E-3, 1.45000E-2,   0.02526,    0.00,    0.00,    0.00,  0.00000,  0.00000,  0.00000,  0.00000,1,1,   0.00,   1,1.0000
     7,     8,'1 ', 1.86000E-3, 1.20900E-2,   0.02105,    0.00,    0.00,    0.00,  0.00000,  0.00000,  0.00000,  0.00000,1,1,   0.00,   1,1.0000
     7,    10,'1 ', 5.08000E-3, 3.30400E-2,   0.05755,    0.00,    0.00,    0.00,  0.00000,  0.00000,  0.00000,  0.00000,1,1,   0.00,   1,1.0000
     8,     9,'1 ', 4.21000E-3, 2.74000E-2,   0.04772,    0.00,    0.00,    0.00,  0.00000,  0.00000,  0.00000,  0.00000,1,1,   0.00,   1,1.0000
     8,    10,'1 ', 4.21000E-3, 2.74000E-2,   0.04772,    0.00,    0.00,    0.00,  0.00000,  0.00000,  0.00000,  0.00000,1,1,   0.00,   1,1.0000
    10,    11,'1 ', 2.48000E-3, 1.61200E-2,   0.02807,    0.00,    0.00,    0.00,  0.00000,  0.00000,  0.00000,  0.00000,1,1,   0.00,   1,1.0000
    10,    11,'2 ', 2.48000E-3, 1.61200E-2,   0.02807,    0.00,    0.00,    0.00,  0.00000,  0.00000,  0.00000,  0.00000,1,1,   0.00,   1,1.0000
    10,    12,'1 ', 2.36000E-3, 1.53100E-2,   0.02667,    0.00,    0.00,    0.00,  0.00000,  0.00000,  0.00000,  0.00000,1,1,   0.00,   1,1.0000
    10,    12,'2 ', 2.36000E-3, 1.53100E-2,   0.02667,    0.00,    0.00,    0.00,  0.00000,  0.00000,  0.00000,  0.00000,1,1,   0.00,   1,1.0000
    13,    14,'1 ', 8.00000E-3, 1.21000E-2,   0.00450,  100.00,    0.00,    0.00,  0.00000,  0.00000,  0.00000,  0.00000,1,1,   0.00,   1,1.0000
    13,    14,'2 ', 8.00000E-3, 1.21000E-2,   0.00450,  100.00,	   0.00,    0.00,  0.00000,  0.00000,  0.00000,  0.00000,1,1,   0.00,   1,1.0000
    15,    16,'1 ', 2.51000E-3, 3.77000E-2,   0.01410,   90.00,    0.00,    0.00,  0.00000,  0.00000,  0.00000,  0.00000,1,1,   0.00,   1,1.0000
    15,    16,'2 ', 2.51000E-3, 3.77000E-2,   0.01410,   90.00,    0.00,    0.00,  0.00000,  0.00000,  0.00000,  0.00000,1,1,   0.00,   1,1.0000
    17,    18,'1 ', 2.02000E-2, 4.20900E-2,   0.01322,    0.00,    0.00,    0.00,  0.00000,  0.00000,  0.00000,  0.00000,1,1,   0.00,   1,1.0000
    17,    19,'1 ', 8.26400E-2, 1.72180E-1,   0.00601,    0.00,    0.00,    0.00,  0.00000,  0.00000,  0.00000,  0.00000,1,1,   0.00,   1,1.0000
    18,    19,'1 ', 1.83700E-2, 3.82600E-2,   0.01202,    0.00,    0.00,    0.00,  0.00000,  0.00000,  0.00000,  0.00000,1,1,   0.00,   1,1.0000
    19,    20,'1 ', 7.30000E-2, 1.52090E-1,   0.02124,    0.00,    0.00,    0.00,  0.00000,  0.00000,  0.00000,  0.00000,1,1,   0.00,   1,1.0000
0 / END OF BRANCH DATA, BEGIN TRANSFORMER DATA
     1,     7,     0,'1 ',1,1,1, 0.00000E+0, 0.00000E+0,2,'            ',1,   1,1.0000
 0.00000E+0, 1.16700E-2,   100.00
1.00000,   0.000,   0.000,     0.00,     0.00,     0.00, 0,      0, 1.10000, 0.90000, 1.10000, 0.90000,  33, 0, 0.00000, 0.00000,  0.000
1.00000,   0.000
     2,     9,     0,'1 ',1,1,1, 0.00000E+0, 0.00000E+0,2,'            ',1,   1,1.0000
 0.00000E+0, 1.37300E-2,   100.00
1.00000,   0.000,   0.000,     0.00,     0.00,     0.00, 0,      0, 1.10000, 0.90000, 1.10000, 0.90000,  33, 0, 0.00000, 0.00000,  0.000
1.00000,   0.000
     3,    11,     0,'1 ',1,1,1, 0.00000E+0, 0.00000E+0,2,'            ',1,   1,1.0000
 0.00000E+0, 1.37300E-2,   100.00
1.00000,   0.000,   0.000,     0.00,     0.00,     0.00, 0,      0, 1.10000, 0.90000, 1.10000, 0.90000,  33, 0, 0.00000, 0.00000,  0.000
1.00000,   0.000
     4,    16,     0,'1 ',1,1,1, 0.00000E+0, 0.00000E+0,2,'            ',1,   1,1.0000
 0.00000E+0, 2.54500E-2,   100.00
1.00000,   0.000,   0.000,     0.00,     0.00,     0.00, 0,      0, 1.10000, 0.90000, 1.10000, 0.90000,  33, 0, 0.00000, 0.00000,  0.000
1.00000,   0.000
     5,    14,     0,'1 ',1,1,1, 0.00000E+0, 0.00000E+0,2,'            ',1,   1,1.0000
 0.00000E+0, 2.54500E-2,   100.00
1.00000,   0.000,   0.000,     0.00,     0.00,     0.00, 0,      0, 1.10000, 0.90000, 1.10000, 0.90000,  33, 0, 0.00000, 0.00000,  0.000
1.00000,   0.000
     6,    13,     0,'1 ',1,1,1, 0.00000E+0, 0.00000E+0,2,'            ',1,   1,1.0000
 0.00000E+0, 2.66700E-2,   100.00
1.00000,   0.000,   0.000,     0.00,     0.00,     0.00, 0,      0, 1.10000, 0.90000, 1.10000, 0.90000,  33, 0, 0.00000, 0.00000,  0.000
1.00000,   0.000
     6,    17,     0,'1 ',1,1,1, 0.00000E+0, 0.00000E+0,2,'            ',1,   1,1.0000
 0.00000E+0, 2.66700E-2,   100.00
1.00000,   0.000,   0.000,     0.00,     0.00,     0.00, 0,      0, 1.10000, 0.90000, 1.10000, 0.90000,  33, 0, 0.00000, 0.00000,  0.000
1.00000,   0.000
     7,    18,     0,'1 ',1,1,1, 0.00000E+0, 0.00000E+0,2,'            ',1,   1,1.0000
 0.00000E+0, 2.66700E-2,   100.00
1.00000,   0.000,   0.000,     0.00,     0.00,     0.00, 0,      0, 1.10000, 0.90000, 1.10000, 0.90000,  33, 0, 0.00000, 0.00000,  0.000
1.00000,   0.000
     8,    19,     0,'1 ',1,1,1, 0.00000E+0, 0.00000E+0,2,'            ',1,   1,1.0000
 0.00000E+0, 2.66700E-2,   100.00
1.00000,   0.000,   0.000,     0.00,     0.00,     0.00, 0,      0, 1.10000, 0.90000, 1.10000, 0.90000,  33, 0, 0.00000, 0.00000,  0.000
1.00000,   0.000
    12,    15,     0,'1 ',1,1,1, 0.00000E+0, 0.00000E+0,2,'            ',1,   1,1.0000
 0.00000E+0, 2.66700E-2,   100.00
1.00000,   0.000,   0.000,     0.00,     0.00,     0.00, 0,      0, 1.10000, 0.90000, 1.10000, 0.90000,  33, 0, 0.00000, 0.00000,  0.000
1.00000,   0.000
    12,    20,     0,'1 ',1,1,1, 0.00000E+0, 0.00000E+0,2,'            ',1,   1,1.0000
 0.00000E+0, 3.55600E-2,   100.00
1.00000,   0.000,   0.000,     0.00,     0.00,     0.00, 0,      0, 1.10000, 0.90000, 1.10000, 0.90000,  33, 0, 0.00000, 0.00000,  0.000
1.00000,   0.000
0 / END OF TRANSFORMER DATA, BEGIN AREA DATA
0 / END OF AREA DATA, BEGIN TWO-TERMINAL DC DATA
0 / END OF TWO-TERMINAL DC DATA, BEGIN VSC DC LINE DATA
0 / END OF VSC DC LINE DATA, BEGIN IMPEDANCE CORRECTION DATA
0 / END OF IMPEDANCE CORRECTION DATA, BEGIN MULTI-TERMINAL DC DATA
0 / END OF MULTI-TERMINAL DC DATA, BEGIN MULTI-SECTION LINE DATA
0 / END OF MULTI-SECTION LINE DATA, BEGIN ZONE DATA
0 / END OF ZONE DATA, BEGIN INTER-AREA TRANSFER DATA
0 / END OF INTER-AREA TRANSFER DATA, BEGIN OWNER DATA
0 / END OF OWNER DATA, BEGIN FACTS DEVICE DATA
0 / END OF FACTS DEVICE DATA, BEGIN SWITCHED SHUNT DATA
0 / END OF SWITCHED SHUNT DATA, BEGIN GNE DATA
0 / END OF GNE DATA
Q
